Circuit: * C:\Users\Dvir\Documents\School Stuff\ENPH 4th Year Term 1\Capstone\NMR_Preamplifier\LTspice\Cascode\cascode.asc

WARNING: Node VOUT is floating.

WARNING: Less than two connections to node VOUT.  This node is used by COUT.
WARNING: Less than two connections to node NC_01.  This node is used by R:U1:E1.
WARNING: Less than two connections to node NC_02.  This node is used by R:U2:E1.
Direct Newton iteration for .op point succeeded.

Date: Mon Apr 06 03:40:53 2020
Total elapsed time: 0.214 seconds.

tnom = 25
temp = 27
method = trap
totiter = 41
traniter = 0
tranpoints = 0
accept = 0
rejected = 0
matrix size = 60
fillins = 94
solver = Normal
Matrix Compiler1:     546 opcodes
Matrix Compiler2:     510 opcodes
