Circuit: * C:\Users\Dvir\Documents\School Stuff\ENPH 4th Year Term 1\Capstone\NMR_Preamplifier\LTspice\EmitterFollowerSingleStage\BJT_EmitterFollower_sim.asc

WARNING: Less than two connections to node NC_01.  This node is used by R:U1:E1.
Direct Newton iteration for .op point succeeded.

Date: Tue Feb 04 01:30:40 2020
Total elapsed time: 0.330 seconds.

tnom = 25
temp = 27
method = trap
totiter = 8
traniter = 0
tranpoints = 0
accept = 0
rejected = 0
matrix size = 20
fillins = 17
solver = Normal
Matrix Compiler1:     153 opcodes
Matrix Compiler2: 2.04 KB object code size
