Circuit: * C:\Users\Dvir\Documents\School Stuff\ENPH 4th Year Term 1\Capstone\NMR_Preamplifier\LTspice\CommonEmitterSingleStage\BJT_CommonEmitter_PreampSim.asc

WARNING: Less than two connections to node NC_01.  This node is used by R:U1:E1.
Direct Newton iteration for .op point succeeded.

Date: Mon Apr 06 03:31:25 2020
Total elapsed time: 0.152 seconds.

tnom = 25
temp = 27
method = trap
totiter = 35
traniter = 0
tranpoints = 0
accept = 0
rejected = 0
matrix size = 34
fillins = 40
solver = Normal
Matrix Compiler1:     262 opcodes
Matrix Compiler2:     270 opcodes
