Circuit: * C:\Users\Dvir\Documents\School Stuff\ENPH 4th Year Term 1\Capstone\NMR_Preamplifier\LTspice\CommonEmitterSingleStage\BJT_CommonEmitter_PreampSim.asc

WARNING: Node VOUT is floating.

WARNING: Less than two connections to node VOUT.  This node is used by COUT.
WARNING: Less than two connections to node NC_01.  This node is used by R:U1:E1.
Direct Newton iteration for .op point succeeded.

Date: Tue Dec 10 19:35:29 2019
Total elapsed time: 0.324 seconds.

tnom = 25
temp = 27
method = trap
totiter = 5
traniter = 0
tranpoints = 0
accept = 0
rejected = 0
matrix size = 21
fillins = 14
solver = Normal
Matrix Compiler1:     141 opcodes
Matrix Compiler2: 2.04 KB object code size
