Circuit: * C:\Users\Dvir\Documents\School Stuff\ENPH 4th Year Term 1\Capstone\NMR_Preamplifier\LTspice\DoubleCommonEmitter\BJT_CommonEmitter_2stage_sim.asc

WARNING: Less than two connections to node NC_01.  This node is used by R:U1:E1.
WARNING: Less than two connections to node NC_02.  This node is used by R:U2:E1.
Direct Newton iteration for .op point succeeded.

Date: Sun Apr 05 22:56:50 2020
Total elapsed time: 0.236 seconds.

tnom = 25
temp = 27
method = trap
totiter = 36
traniter = 0
tranpoints = 0
accept = 0
rejected = 0
matrix size = 61
fillins = 84
solver = Normal
Matrix Compiler1:     521 opcodes
Matrix Compiler2:     508 opcodes
